* SPICE3 file created from OTA_2stage.ext - technology: gf180mcuC

.subckt pfet a_3112_n44# a_14200_n44# a_4624_n44# a_15712_n44# a_10064_0# a_18128_0#
+ a_11072_0# a_19136_0# a_6136_n44# a_17224_n44# a_12080_0# a_7648_n44# a_18736_n44#
+ a_2504_0# a_9160_n44# a_3512_0# w_n176_n86# a_10672_n44# a_4520_0# a_20752_n44#
+ a_12184_n44# a_1096_n44# a_992_0# a_13696_n44# a_10568_0# a_3008_0# a_22264_n44#
+ a_4016_0# a_11576_0# a_23776_n44# a_12584_0# a_5024_0# a_13592_0# a_6032_0# a_488_0#
+ a_7040_0# a_2104_n44# a_3616_n44# a_14704_n44# a_6640_n44# a_5128_n44# a_16216_n44#
+ a_13088_0# a_17728_n44# a_19240_n44# a_14096_0# a_8152_n44# a_9664_n44# a_5528_0#
+ a_6536_0# a_7544_0# a_11176_n44# a_8552_0# a_12688_n44# a_9560_0# a_14600_0# a_20144_0#
+ a_21256_n44# a_22768_n44# a_21152_0# a_24280_n44# a_22160_0# a_8048_0# a_9056_0#
+ a_2608_n44# a_88_n44# a_4120_n44# a_15104_0# a_5632_n44# a_16720_n44# a_16112_0#
+ a_15208_n44# a_17120_0# a_20648_0# a_7144_n44# a_18232_n44# a_8656_n44# a_19744_n44#
+ a_21656_0# a_22664_0# a_11680_n44# a_0_0# a_23672_0# a_24680_0# a_1496_0# a_10168_n44#
+ a_21760_n44# a_592_n44# a_13192_n44# a_15608_0# a_20248_n44# a_16616_0# a_23272_n44#
+ a_2000_0# a_17624_0# a_23168_0# a_24784_n44# a_18632_0# a_24176_0# a_1600_n44# a_19640_0#
+ VSUBS a_25184_0#
X0 a_8552_0# a_8152_n44# a_8048_0# w_n176_n86# pfet_03v3 ad=13p pd=50.52u as=13p ps=50.52u w=50u l=2u
X1 a_10064_0# a_9664_n44# a_9560_0# w_n176_n86# pfet_03v3 ad=13p pd=50.52u as=13p ps=50.52u w=50u l=2u
X2 a_15104_0# a_14704_n44# a_14600_0# w_n176_n86# pfet_03v3 ad=13p pd=50.52u as=13p ps=50.52u w=50u l=2u
X3 a_5528_0# a_5128_n44# a_5024_0# w_n176_n86# pfet_03v3 ad=13p pd=50.52u as=13p ps=50.52u w=50u l=2u
X4 a_7040_0# a_6640_n44# a_6536_0# w_n176_n86# pfet_03v3 ad=13p pd=50.52u as=13p ps=50.52u w=50u l=2u
X5 a_2504_0# a_2104_n44# a_2000_0# w_n176_n86# pfet_03v3 ad=13p pd=50.52u as=13p ps=50.52u w=50u l=2u
X6 a_4016_0# a_3616_n44# a_3512_0# w_n176_n86# pfet_03v3 ad=13p pd=50.52u as=13p ps=50.52u w=50u l=2u
X7 a_22664_0# a_22264_n44# a_22160_0# w_n176_n86# pfet_03v3 ad=13p pd=50.52u as=13p ps=50.52u w=50u l=2u
X8 a_24176_0# a_23776_n44# a_23672_0# w_n176_n86# pfet_03v3 ad=13p pd=50.52u as=13p ps=50.52u w=50u l=2u
X9 a_14096_0# a_13696_n44# a_13592_0# w_n176_n86# pfet_03v3 ad=13p pd=50.52u as=13p ps=50.52u w=50u l=2u
X10 a_12584_0# a_12184_n44# a_12080_0# w_n176_n86# pfet_03v3 ad=13p pd=50.52u as=13p ps=50.52u w=50u l=2u
X11 a_21152_0# a_20752_n44# a_20648_0# w_n176_n86# pfet_03v3 ad=13p pd=50.52u as=13p ps=50.52u w=50u l=2u
X12 a_11072_0# a_10672_n44# a_10568_0# w_n176_n86# pfet_03v3 ad=13p pd=50.52u as=13p ps=50.52u w=50u l=2u
X13 a_1496_0# a_1096_n44# a_992_0# w_n176_n86# pfet_03v3 ad=13p pd=50.52u as=13p ps=50.52u w=50u l=2u
X14 a_19136_0# a_18736_n44# a_18632_0# w_n176_n86# pfet_03v3 ad=13p pd=50.52u as=13p ps=50.52u w=50u l=2u
X15 a_17624_0# a_17224_n44# a_17120_0# w_n176_n86# pfet_03v3 ad=13p pd=50.52u as=13p ps=50.52u w=50u l=2u
X16 a_16112_0# a_15712_n44# a_15608_0# w_n176_n86# pfet_03v3 ad=13p pd=50.52u as=13p ps=50.52u w=50u l=2u
X17 a_6536_0# a_6136_n44# a_6032_0# w_n176_n86# pfet_03v3 ad=13p pd=50.52u as=13p ps=50.52u w=50u l=2u
X18 a_8048_0# a_7648_n44# a_7544_0# w_n176_n86# pfet_03v3 ad=13p pd=50.52u as=13p ps=50.52u w=50u l=2u
X19 a_9560_0# a_9160_n44# a_9056_0# w_n176_n86# pfet_03v3 ad=13p pd=50.52u as=13p ps=50.52u w=50u l=2u
X20 a_14600_0# a_14200_n44# a_14096_0# w_n176_n86# pfet_03v3 ad=13p pd=50.52u as=13p ps=50.52u w=50u l=2u
X21 a_5024_0# a_4624_n44# a_4520_0# w_n176_n86# pfet_03v3 ad=13p pd=50.52u as=13p ps=50.52u w=50u l=2u
X22 a_25184_0# a_24784_n44# a_24680_0# w_n176_n86# pfet_03v3 ad=22p pd=100.88u as=13p ps=50.52u w=50u l=2u
X23 a_3512_0# a_3112_n44# a_3008_0# w_n176_n86# pfet_03v3 ad=13p pd=50.52u as=13p ps=50.52u w=50u l=2u
X24 a_20648_0# a_20248_n44# a_20144_0# w_n176_n86# pfet_03v3 ad=13p pd=50.52u as=13p ps=50.52u w=50u l=2u
X25 a_23672_0# a_23272_n44# a_23168_0# w_n176_n86# pfet_03v3 ad=13p pd=50.52u as=13p ps=50.52u w=50u l=2u
X26 a_2000_0# a_1600_n44# a_1496_0# w_n176_n86# pfet_03v3 ad=13p pd=50.52u as=13p ps=50.52u w=50u l=2u
X27 a_13592_0# a_13192_n44# a_13088_0# w_n176_n86# pfet_03v3 ad=13p pd=50.52u as=13p ps=50.52u w=50u l=2u
X28 a_10568_0# a_10168_n44# a_10064_0# w_n176_n86# pfet_03v3 ad=13p pd=50.52u as=13p ps=50.52u w=50u l=2u
X29 a_22160_0# a_21760_n44# a_21656_0# w_n176_n86# pfet_03v3 ad=13p pd=50.52u as=13p ps=50.52u w=50u l=2u
X30 a_12080_0# a_11680_n44# a_11576_0# w_n176_n86# pfet_03v3 ad=13p pd=50.52u as=13p ps=50.52u w=50u l=2u
X31 a_20144_0# a_19744_n44# a_19640_0# w_n176_n86# pfet_03v3 ad=13p pd=50.52u as=13p ps=50.52u w=50u l=2u
X32 a_18632_0# a_18232_n44# a_18128_0# w_n176_n86# pfet_03v3 ad=13p pd=50.52u as=13p ps=50.52u w=50u l=2u
X33 a_488_0# a_88_n44# a_0_0# w_n176_n86# pfet_03v3 ad=13p pd=50.52u as=22p ps=100.88u w=50u l=2u
X34 a_15608_0# a_15208_n44# a_15104_0# w_n176_n86# pfet_03v3 ad=13p pd=50.52u as=13p ps=50.52u w=50u l=2u
X35 a_9056_0# a_8656_n44# a_8552_0# w_n176_n86# pfet_03v3 ad=13p pd=50.52u as=13p ps=50.52u w=50u l=2u
X36 a_17120_0# a_16720_n44# a_16616_0# w_n176_n86# pfet_03v3 ad=13p pd=50.52u as=13p ps=50.52u w=50u l=2u
X37 a_7544_0# a_7144_n44# a_7040_0# w_n176_n86# pfet_03v3 ad=13p pd=50.52u as=13p ps=50.52u w=50u l=2u
X38 a_6032_0# a_5632_n44# a_5528_0# w_n176_n86# pfet_03v3 ad=13p pd=50.52u as=13p ps=50.52u w=50u l=2u
X39 a_3008_0# a_2608_n44# a_2504_0# w_n176_n86# pfet_03v3 ad=13p pd=50.52u as=13p ps=50.52u w=50u l=2u
X40 a_4520_0# a_4120_n44# a_4016_0# w_n176_n86# pfet_03v3 ad=13p pd=50.52u as=13p ps=50.52u w=50u l=2u
X41 a_23168_0# a_22768_n44# a_22664_0# w_n176_n86# pfet_03v3 ad=13p pd=50.52u as=13p ps=50.52u w=50u l=2u
X42 a_24680_0# a_24280_n44# a_24176_0# w_n176_n86# pfet_03v3 ad=13p pd=50.52u as=13p ps=50.52u w=50u l=2u
X43 a_21656_0# a_21256_n44# a_21152_0# w_n176_n86# pfet_03v3 ad=13p pd=50.52u as=13p ps=50.52u w=50u l=2u
X44 a_13088_0# a_12688_n44# a_12584_0# w_n176_n86# pfet_03v3 ad=13p pd=50.52u as=13p ps=50.52u w=50u l=2u
X45 a_11576_0# a_11176_n44# a_11072_0# w_n176_n86# pfet_03v3 ad=13p pd=50.52u as=13p ps=50.52u w=50u l=2u
X46 a_992_0# a_592_n44# a_488_0# w_n176_n86# pfet_03v3 ad=13p pd=50.52u as=13p ps=50.52u w=50u l=2u
X47 a_19640_0# a_19240_n44# a_19136_0# w_n176_n86# pfet_03v3 ad=13p pd=50.52u as=13p ps=50.52u w=50u l=2u
X48 a_16616_0# a_16216_n44# a_16112_0# w_n176_n86# pfet_03v3 ad=13p pd=50.52u as=13p ps=50.52u w=50u l=2u
X49 a_18128_0# a_17728_n44# a_17624_0# w_n176_n86# pfet_03v3 ad=13p pd=50.52u as=13p ps=50.52u w=50u l=2u
C0 w_n176_n86# a_0_0# 4.68fF
C1 w_n176_n86# VSUBS 780.45fF
.ends

.subckt nfet$2 a_29776_0# a_592_0# a_15792_0# a_27752_n44# a_23800_n44# a_4952_n44#
+ a_27648_0# a_13664_0# a_20960_0# a_16400_0# a_11536_0# a_15288_n44# a_11336_n44#
+ a_1000_n44# a_5760_0# a_3632_0# a_21368_n44# a_18632_n44# a_28560_0# a_1504_0# a_23696_0#
+ a_28664_n44# a_24712_n44# a_5864_n44# a_1912_n44# a_19136_0# a_26432_0# a_22280_n44#
+ a_8496_0# a_21568_0# a_24304_0# a_10320_0# a_17008_0# a_6368_0# a_12248_n44# a_9104_0#
+ a_19544_n44# a_29168_0# a_15184_0# a_22480_0# a_13160_n44# a_29576_n44# a_25624_n44#
+ a_6776_n44# a_2824_n44# a_7280_0# a_13056_0# a_20352_0# a_23192_n44# a_5152_0# a_9208_n44#
+ a_17920_0# a_3024_0# a_n152_0# a_16504_n44# a_392_n44# a_23088_0# a_30384_0# a_14072_n44#
+ a_10120_n44# a_10928_0# a_26536_n44# a_7688_n44# a_3736_n44# a_20152_n44# a_27952_0#
+ a_30184_n44# a_14984_n44# a_18528_0# a_25824_0# a_11840_0# a_7888_0# a_17416_n44#
+ a_11032_n44# a_27448_n44# a_4648_n44# a_19440_0# a_21064_n44# a_14576_0# a_21872_0#
+ a_17312_0# a_28360_n44# a_15896_n44# a_11944_n44# a_5560_n44# a_6672_0# a_12448_0#
+ a_21976_n44# a_18328_n44# a_4544_0# a_29472_0# a_2416_0# a_24408_n44# a_1608_n44#
+ a_27344_0# a_19240_n44# a_13360_0# a_8904_n44# a_25216_0# a_29272_n44# a_11232_0#
+ a_25320_n44# a_12856_n44# a_6472_n44# a_2520_n44# a_22888_n44# a_16096_0# a_23392_0#
+ a_1200_0# a_8192_0# a_21264_0# a_16200_n44# a_24000_0# a_9816_n44# a_896_0# a_6064_0#
+ a_26232_n44# a_13768_n44# a_7384_n44# a_3432_n44# a_18832_0# a_13968_0# a_16704_0#
+ a_14680_n44# a_8800_0# a_20760_n44# a_17112_n44# a_3936_0# a_28864_0# a_1808_0#
+ a_14880_0# a_27144_n44# a_10728_n44# a_8296_n44# a_4344_n44# a_26736_0# a_12752_0#
+ a_24608_0# a_30080_0# a_10624_0# a_15592_n44# a_11640_n44# a_88_n44# a_9408_0# a_2720_0#
+ a_21672_n44# a_18024_n44# a_288_0# a_22784_0# a_15488_0# a_25520_0# a_28056_n44#
+ a_18224_0# a_24104_n44# a_5256_n44# a_1304_n44# a_7584_0# a_20656_0# a_18936_n44#
+ a_8600_n44# a_5456_0# a_12552_n44# a_28968_n44# a_3328_0# a_22584_n44# a_28256_0#
+ a_14272_0# a_26128_0# a_29880_n44# a_12144_0# a_0_0# a_25016_n44# a_6168_n44# a_2216_n44#
+ a_19848_n44# a_4240_0# a_10016_0# a_9512_n44# a_13464_n44# a_7080_n44# a_2112_0#
+ a_25928_n44# a_27040_0# a_23496_n44# a_22176_0# a_7992_n44# a_20048_0# a_26840_n44#
+ a_3128_n44# a_19744_0# a_16808_n44# a_696_n44# a_17616_0# a_24912_0# a_14376_n44#
+ a_10424_n44# a_4040_n44# a_6976_0# a_9712_0# a_20456_n44# a_17720_n44# a_4848_0#
X0 a_27648_0# a_27448_n44# a_27344_0# a_n152_0# nfet_03v3 ad=26p pd=100.52u as=26p ps=100.52u w=100u l=1000n
X1 a_1808_0# a_1608_n44# a_1504_0# a_n152_0# nfet_03v3 ad=26p pd=100.52u as=26p ps=100.52u w=100u l=1000n
X2 a_11232_0# a_11032_n44# a_10928_0# a_n152_0# nfet_03v3 ad=26p pd=100.52u as=26p ps=100.52u w=100u l=1000n
X3 a_17616_0# a_17416_n44# a_17312_0# a_n152_0# nfet_03v3 ad=26p pd=100.52u as=26p ps=100.52u w=100u l=1000n
X4 a_5760_0# a_5560_n44# a_5456_0# a_n152_0# nfet_03v3 ad=26p pd=100.52u as=26p ps=100.52u w=100u l=1000n
X5 a_30384_0# a_30184_n44# a_30080_0# a_n152_0# nfet_03v3 ad=44p pd=200.88u as=26p ps=100.52u w=100u l=1000n
X6 a_15184_0# a_14984_n44# a_14880_0# a_n152_0# nfet_03v3 ad=26p pd=100.52u as=26p ps=100.52u w=100u l=1000n
X7 a_20352_0# a_20152_n44# a_20048_0# a_n152_0# nfet_03v3 ad=26p pd=100.52u as=26p ps=100.52u w=100u l=1000n
X8 a_26736_0# a_26536_n44# a_26432_0# a_n152_0# nfet_03v3 ad=26p pd=100.52u as=26p ps=100.52u w=100u l=1000n
X9 a_4848_0# a_4648_n44# a_4544_0# a_n152_0# nfet_03v3 ad=26p pd=100.52u as=26p ps=100.52u w=100u l=1000n
X10 a_10320_0# a_10120_n44# a_10016_0# a_n152_0# nfet_03v3 ad=26p pd=100.52u as=26p ps=100.52u w=100u l=1000n
X11 a_14272_0# a_14072_n44# a_13968_0# a_n152_0# nfet_03v3 ad=26p pd=100.52u as=26p ps=100.52u w=100u l=1000n
X12 a_16704_0# a_16504_n44# a_16400_0# a_n152_0# nfet_03v3 ad=26p pd=100.52u as=26p ps=100.52u w=100u l=1000n
X13 a_23392_0# a_23192_n44# a_23088_0# a_n152_0# nfet_03v3 ad=26p pd=100.52u as=26p ps=100.52u w=100u l=1000n
X14 a_3936_0# a_3736_n44# a_3632_0# a_n152_0# nfet_03v3 ad=26p pd=100.52u as=26p ps=100.52u w=100u l=1000n
X15 a_29776_0# a_29576_n44# a_29472_0# a_n152_0# nfet_03v3 ad=26p pd=100.52u as=26p ps=100.52u w=100u l=1000n
X16 a_25824_0# a_25624_n44# a_25520_0# a_n152_0# nfet_03v3 ad=26p pd=100.52u as=26p ps=100.52u w=100u l=1000n
X17 a_7888_0# a_7688_n44# a_7584_0# a_n152_0# nfet_03v3 ad=26p pd=100.52u as=26p ps=100.52u w=100u l=1000n
X18 a_13360_0# a_13160_n44# a_13056_0# a_n152_0# nfet_03v3 ad=26p pd=100.52u as=26p ps=100.52u w=100u l=1000n
X19 a_19744_0# a_19544_n44# a_19440_0# a_n152_0# nfet_03v3 ad=26p pd=100.52u as=26p ps=100.52u w=100u l=1000n
X20 a_12448_0# a_12248_n44# a_12144_0# a_n152_0# nfet_03v3 ad=26p pd=100.52u as=26p ps=100.52u w=100u l=1000n
X21 a_9408_0# a_9208_n44# a_9104_0# a_n152_0# nfet_03v3 ad=26p pd=100.52u as=26p ps=100.52u w=100u l=1000n
X22 a_22480_0# a_22280_n44# a_22176_0# a_n152_0# nfet_03v3 ad=26p pd=100.52u as=26p ps=100.52u w=100u l=1000n
X23 a_3024_0# a_2824_n44# a_2720_0# a_n152_0# nfet_03v3 ad=26p pd=100.52u as=26p ps=100.52u w=100u l=1000n
X24 a_28864_0# a_28664_n44# a_28560_0# a_n152_0# nfet_03v3 ad=26p pd=100.52u as=26p ps=100.52u w=100u l=1000n
X25 a_24912_0# a_24712_n44# a_24608_0# a_n152_0# nfet_03v3 ad=26p pd=100.52u as=26p ps=100.52u w=100u l=1000n
X26 a_6976_0# a_6776_n44# a_6672_0# a_n152_0# nfet_03v3 ad=26p pd=100.52u as=26p ps=100.52u w=100u l=1000n
X27 a_21568_0# a_21368_n44# a_21264_0# a_n152_0# nfet_03v3 ad=26p pd=100.52u as=26p ps=100.52u w=100u l=1000n
X28 a_18832_0# a_18632_n44# a_18528_0# a_n152_0# nfet_03v3 ad=26p pd=100.52u as=26p ps=100.52u w=100u l=1000n
X29 a_15488_0# a_15288_n44# a_15184_0# a_n152_0# nfet_03v3 ad=26p pd=100.52u as=26p ps=100.52u w=100u l=1000n
X30 a_11536_0# a_11336_n44# a_11232_0# a_n152_0# nfet_03v3 ad=26p pd=100.52u as=26p ps=100.52u w=100u l=1000n
X31 a_27952_0# a_27752_n44# a_27648_0# a_n152_0# nfet_03v3 ad=26p pd=100.52u as=26p ps=100.52u w=100u l=1000n
X32 a_24000_0# a_23800_n44# a_23696_0# a_n152_0# nfet_03v3 ad=26p pd=100.52u as=26p ps=100.52u w=100u l=1000n
X33 a_6064_0# a_5864_n44# a_5760_0# a_n152_0# nfet_03v3 ad=26p pd=100.52u as=26p ps=100.52u w=100u l=1000n
X34 a_2112_0# a_1912_n44# a_1808_0# a_n152_0# nfet_03v3 ad=26p pd=100.52u as=26p ps=100.52u w=100u l=1000n
X35 a_20656_0# a_20456_n44# a_20352_0# a_n152_0# nfet_03v3 ad=26p pd=100.52u as=26p ps=100.52u w=100u l=1000n
X36 a_17920_0# a_17720_n44# a_17616_0# a_n152_0# nfet_03v3 ad=26p pd=100.52u as=26p ps=100.52u w=100u l=1000n
X37 a_1200_0# a_1000_n44# a_896_0# a_n152_0# nfet_03v3 ad=26p pd=100.52u as=26p ps=100.52u w=100u l=1000n
X38 a_14576_0# a_14376_n44# a_14272_0# a_n152_0# nfet_03v3 ad=26p pd=100.52u as=26p ps=100.52u w=100u l=1000n
X39 a_10624_0# a_10424_n44# a_10320_0# a_n152_0# nfet_03v3 ad=26p pd=100.52u as=26p ps=100.52u w=100u l=1000n
X40 a_17008_0# a_16808_n44# a_16704_0# a_n152_0# nfet_03v3 ad=26p pd=100.52u as=26p ps=100.52u w=100u l=1000n
X41 a_27040_0# a_26840_n44# a_26736_0# a_n152_0# nfet_03v3 ad=26p pd=100.52u as=26p ps=100.52u w=100u l=1000n
X42 a_5152_0# a_4952_n44# a_4848_0# a_n152_0# nfet_03v3 ad=26p pd=100.52u as=26p ps=100.52u w=100u l=1000n
X43 a_23696_0# a_23496_n44# a_23392_0# a_n152_0# nfet_03v3 ad=26p pd=100.52u as=26p ps=100.52u w=100u l=1000n
X44 a_26128_0# a_25928_n44# a_25824_0# a_n152_0# nfet_03v3 ad=26p pd=100.52u as=26p ps=100.52u w=100u l=1000n
X45 a_4240_0# a_4040_n44# a_3936_0# a_n152_0# nfet_03v3 ad=26p pd=100.52u as=26p ps=100.52u w=100u l=1000n
X46 a_13664_0# a_13464_n44# a_13360_0# a_n152_0# nfet_03v3 ad=26p pd=100.52u as=26p ps=100.52u w=100u l=1000n
X47 a_20048_0# a_19848_n44# a_19744_0# a_n152_0# nfet_03v3 ad=26p pd=100.52u as=26p ps=100.52u w=100u l=1000n
X48 a_25216_0# a_25016_n44# a_24912_0# a_n152_0# nfet_03v3 ad=26p pd=100.52u as=26p ps=100.52u w=100u l=1000n
X49 a_3328_0# a_3128_n44# a_3024_0# a_n152_0# nfet_03v3 ad=26p pd=100.52u as=26p ps=100.52u w=100u l=1000n
X50 a_592_0# a_392_n44# a_288_0# a_n152_0# nfet_03v3 ad=26p pd=100.52u as=26p ps=100.52u w=100u l=1000n
X51 a_30080_0# a_29880_n44# a_29776_0# a_n152_0# nfet_03v3 ad=26p pd=100.52u as=26p ps=100.52u w=100u l=1000n
X52 a_8192_0# a_7992_n44# a_7888_0# a_n152_0# nfet_03v3 ad=26p pd=100.52u as=26p ps=100.52u w=100u l=1000n
X53 a_22784_0# a_22584_n44# a_22480_0# a_n152_0# nfet_03v3 ad=26p pd=100.52u as=26p ps=100.52u w=100u l=1000n
X54 a_29168_0# a_28968_n44# a_28864_0# a_n152_0# nfet_03v3 ad=26p pd=100.52u as=26p ps=100.52u w=100u l=1000n
X55 a_12752_0# a_12552_n44# a_12448_0# a_n152_0# nfet_03v3 ad=26p pd=100.52u as=26p ps=100.52u w=100u l=1000n
X56 a_7280_0# a_7080_n44# a_6976_0# a_n152_0# nfet_03v3 ad=26p pd=100.52u as=26p ps=100.52u w=100u l=1000n
X57 a_9712_0# a_9512_n44# a_9408_0# a_n152_0# nfet_03v3 ad=26p pd=100.52u as=26p ps=100.52u w=100u l=1000n
X58 a_19136_0# a_18936_n44# a_18832_0# a_n152_0# nfet_03v3 ad=26p pd=100.52u as=26p ps=100.52u w=100u l=1000n
X59 a_24304_0# a_24104_n44# a_24000_0# a_n152_0# nfet_03v3 ad=26p pd=100.52u as=26p ps=100.52u w=100u l=1000n
X60 a_6368_0# a_6168_n44# a_6064_0# a_n152_0# nfet_03v3 ad=26p pd=100.52u as=26p ps=100.52u w=100u l=1000n
X61 a_2416_0# a_2216_n44# a_2112_0# a_n152_0# nfet_03v3 ad=26p pd=100.52u as=26p ps=100.52u w=100u l=1000n
X62 a_288_0# a_88_n44# a_0_0# a_n152_0# nfet_03v3 ad=26p pd=100.52u as=44p ps=200.88u w=100u l=1000n
X63 a_28256_0# a_28056_n44# a_27952_0# a_n152_0# nfet_03v3 ad=26p pd=100.52u as=26p ps=100.52u w=100u l=1000n
X64 a_21872_0# a_21672_n44# a_21568_0# a_n152_0# nfet_03v3 ad=26p pd=100.52u as=26p ps=100.52u w=100u l=1000n
X65 a_18224_0# a_18024_n44# a_17920_0# a_n152_0# nfet_03v3 ad=26p pd=100.52u as=26p ps=100.52u w=100u l=1000n
X66 a_15792_0# a_15592_n44# a_15488_0# a_n152_0# nfet_03v3 ad=26p pd=100.52u as=26p ps=100.52u w=100u l=1000n
X67 a_11840_0# a_11640_n44# a_11536_0# a_n152_0# nfet_03v3 ad=26p pd=100.52u as=26p ps=100.52u w=100u l=1000n
X68 a_8800_0# a_8600_n44# a_8496_0# a_n152_0# nfet_03v3 ad=26p pd=100.52u as=26p ps=100.52u w=100u l=1000n
X69 a_1504_0# a_1304_n44# a_1200_0# a_n152_0# nfet_03v3 ad=26p pd=100.52u as=26p ps=100.52u w=100u l=1000n
X70 a_27344_0# a_27144_n44# a_27040_0# a_n152_0# nfet_03v3 ad=26p pd=100.52u as=26p ps=100.52u w=100u l=1000n
X71 a_10928_0# a_10728_n44# a_10624_0# a_n152_0# nfet_03v3 ad=26p pd=100.52u as=26p ps=100.52u w=100u l=1000n
X72 a_5456_0# a_5256_n44# a_5152_0# a_n152_0# nfet_03v3 ad=26p pd=100.52u as=26p ps=100.52u w=100u l=1000n
X73 a_20960_0# a_20760_n44# a_20656_0# a_n152_0# nfet_03v3 ad=26p pd=100.52u as=26p ps=100.52u w=100u l=1000n
X74 a_17312_0# a_17112_n44# a_17008_0# a_n152_0# nfet_03v3 ad=26p pd=100.52u as=26p ps=100.52u w=100u l=1000n
X75 a_14880_0# a_14680_n44# a_14576_0# a_n152_0# nfet_03v3 ad=26p pd=100.52u as=26p ps=100.52u w=100u l=1000n
X76 a_26432_0# a_26232_n44# a_26128_0# a_n152_0# nfet_03v3 ad=26p pd=100.52u as=26p ps=100.52u w=100u l=1000n
X77 a_13968_0# a_13768_n44# a_13664_0# a_n152_0# nfet_03v3 ad=26p pd=100.52u as=26p ps=100.52u w=100u l=1000n
X78 a_8496_0# a_8296_n44# a_8192_0# a_n152_0# nfet_03v3 ad=26p pd=100.52u as=26p ps=100.52u w=100u l=1000n
X79 a_4544_0# a_4344_n44# a_4240_0# a_n152_0# nfet_03v3 ad=26p pd=100.52u as=26p ps=100.52u w=100u l=1000n
X80 a_16400_0# a_16200_n44# a_16096_0# a_n152_0# nfet_03v3 ad=26p pd=100.52u as=26p ps=100.52u w=100u l=1000n
X81 a_896_0# a_696_n44# a_592_0# a_n152_0# nfet_03v3 ad=26p pd=100.52u as=26p ps=100.52u w=100u l=1000n
X82 a_23088_0# a_22888_n44# a_22784_0# a_n152_0# nfet_03v3 ad=26p pd=100.52u as=26p ps=100.52u w=100u l=1000n
X83 a_25520_0# a_25320_n44# a_25216_0# a_n152_0# nfet_03v3 ad=26p pd=100.52u as=26p ps=100.52u w=100u l=1000n
X84 a_13056_0# a_12856_n44# a_12752_0# a_n152_0# nfet_03v3 ad=26p pd=100.52u as=26p ps=100.52u w=100u l=1000n
X85 a_7584_0# a_7384_n44# a_7280_0# a_n152_0# nfet_03v3 ad=26p pd=100.52u as=26p ps=100.52u w=100u l=1000n
X86 a_3632_0# a_3432_n44# a_3328_0# a_n152_0# nfet_03v3 ad=26p pd=100.52u as=26p ps=100.52u w=100u l=1000n
X87 a_29472_0# a_29272_n44# a_29168_0# a_n152_0# nfet_03v3 ad=26p pd=100.52u as=26p ps=100.52u w=100u l=1000n
X88 a_10016_0# a_9816_n44# a_9712_0# a_n152_0# nfet_03v3 ad=26p pd=100.52u as=26p ps=100.52u w=100u l=1000n
X89 a_19440_0# a_19240_n44# a_19136_0# a_n152_0# nfet_03v3 ad=26p pd=100.52u as=26p ps=100.52u w=100u l=1000n
X90 a_24608_0# a_24408_n44# a_24304_0# a_n152_0# nfet_03v3 ad=26p pd=100.52u as=26p ps=100.52u w=100u l=1000n
X91 a_22176_0# a_21976_n44# a_21872_0# a_n152_0# nfet_03v3 ad=26p pd=100.52u as=26p ps=100.52u w=100u l=1000n
X92 a_18528_0# a_18328_n44# a_18224_0# a_n152_0# nfet_03v3 ad=26p pd=100.52u as=26p ps=100.52u w=100u l=1000n
X93 a_12144_0# a_11944_n44# a_11840_0# a_n152_0# nfet_03v3 ad=26p pd=100.52u as=26p ps=100.52u w=100u l=1000n
X94 a_6672_0# a_6472_n44# a_6368_0# a_n152_0# nfet_03v3 ad=26p pd=100.52u as=26p ps=100.52u w=100u l=1000n
X95 a_2720_0# a_2520_n44# a_2416_0# a_n152_0# nfet_03v3 ad=26p pd=100.52u as=26p ps=100.52u w=100u l=1000n
X96 a_28560_0# a_28360_n44# a_28256_0# a_n152_0# nfet_03v3 ad=26p pd=100.52u as=26p ps=100.52u w=100u l=1000n
X97 a_16096_0# a_15896_n44# a_15792_0# a_n152_0# nfet_03v3 ad=26p pd=100.52u as=26p ps=100.52u w=100u l=1000n
X98 a_9104_0# a_8904_n44# a_8800_0# a_n152_0# nfet_03v3 ad=26p pd=100.52u as=26p ps=100.52u w=100u l=1000n
X99 a_21264_0# a_21064_n44# a_20960_0# a_n152_0# nfet_03v3 ad=26p pd=100.52u as=26p ps=100.52u w=100u l=1000n
C0 a_0_0# a_n152_0# 9.38fF
.ends

.subckt pfet$4 a_8036_0# a_23408_0# a_19852_n44# a_332_n44# a_4376_0# a_17308_0# a_13648_0#
+ a_576_n44# a_12184_0# a_472_0# a_19608_n44# a_18632_n44# a_24140_0# a_18876_n44#
+ a_6572_0# a_19504_0# a_21944_0# a_15844_0# a_18040_0# a_20480_0# a_17412_n44# a_14380_0#
+ a_17656_n44# a_16680_n44# a_16436_n44# a_15460_n44# w_n176_n86# a_1204_0# a_7548_0#
+ a_6084_0# a_19016_0# a_21456_0# a_15216_n44# a_14240_n44# a_3888_0# a_15356_0# a_23512_n44#
+ a_14484_n44# a_11800_n44# a_11696_0# a_3400_0# a_13020_n44# a_9744_0# a_23756_n44#
+ a_22780_n44# a_8280_0# a_23652_0# a_13264_n44# a_17552_0# a_22536_n44# a_21560_n44#
+ a_13892_0# a_10824_n44# a_12044_n44# a_9604_n44# a_21316_n44# a_20340_n44# a_12288_n44#
+ a_9848_n44# a_8872_n44# a_20584_n44# a_9256_0# a_11068_n44# a_10092_n44# a_18528_0#
+ a_20968_0# a_23164_0# a_8628_n44# a_7652_n44# a_5596_0# a_17064_0# a_14868_0# a_7896_n44#
+ a_7408_n44# a_6432_n44# a_2912_0# a_10720_0# a_6676_n44# a_7792_0# a_19260_0# a_5212_n44#
+ a_5456_n44# a_4480_n44# a_4236_n44# a_3260_n44# a_2424_0# a_8768_0# a_10232_0# a_22676_0#
+ a_3016_n44# a_2040_n44# a_16576_0# a_2284_n44# a_4620_0# a_820_n44# a_18772_0# a_1064_n44#
+ a_11208_0# a_22188_0# a_16088_0# a_17900_n44# a_4132_0# a_19120_n44# a_1936_0# a_13404_0#
+ a_19748_0# a_24384_0# a_18284_0# a_19364_n44# a_16924_n44# a_21700_0# a_15600_0#
+ a_18144_n44# a_11940_0# a_18388_n44# a_15704_n44# a_5108_0# a_1448_0# a_15948_n44#
+ a_14972_n44# a_17168_n44# a_16192_n44# a_14728_n44# a_13752_n44# a_7304_0# a_21212_0#
+ a_24000_n44# a_2180_0# a_3644_0# a_12916_0# a_15112_0# a_13996_n44# a_88_n44# a_9988_0#
+ a_11452_0# a_23896_0# a_24244_n44# a_13508_n44# a_12532_n44# a_17796_0# a_9500_0#
+ a_21804_n44# a_12776_n44# a_5840_0# a_23024_n44# a_11312_n44# a_23268_n44# a_22292_n44#
+ a_10580_n44# a_19992_0# a_11556_n44# a_9360_n44# a_3156_0# a_20828_n44# a_12428_0#
+ a_22048_n44# a_21072_n44# a_10336_n44# a_716_0# a_6920_n44# a_9116_n44# a_8140_n44#
+ a_6816_0# a_9012_0# a_5352_0# a_20724_0# a_8384_n44# a_5700_n44# a_14624_0# a_0_0#
+ a_20096_n44# a_1692_0# a_13160_0# a_5944_n44# a_10964_0# a_7164_n44# a_22920_0#
+ a_4724_n44# a_16820_0# a_228_0# a_4968_n44# a_3992_n44# a_6328_0# a_6188_n44# a_3504_n44#
+ a_20236_0# a_2668_0# a_14136_0# a_3748_n44# a_2772_n44# a_10476_0# a_8524_0# a_2528_n44#
+ a_1552_n44# a_7060_0# a_22432_0# a_4864_0# a_16332_0# a_12672_0# a_1796_n44# a_1308_n44#
+ VSUBS a_960_0#
X0 a_2424_0# a_2284_n44# a_2180_0# w_n176_n86# pfet_03v3 ad=26p pd=100.52u as=26p ps=100.52u w=100u l=700n
X1 a_3156_0# a_3016_n44# a_2912_0# w_n176_n86# pfet_03v3 ad=26p pd=100.52u as=26p ps=100.52u w=100u l=700n
X2 a_2180_0# a_2040_n44# a_1936_0# w_n176_n86# pfet_03v3 ad=26p pd=100.52u as=26p ps=100.52u w=100u l=700n
X3 a_4376_0# a_4236_n44# a_4132_0# w_n176_n86# pfet_03v3 ad=26p pd=100.52u as=26p ps=100.52u w=100u l=700n
X4 a_3400_0# a_3260_n44# a_3156_0# w_n176_n86# pfet_03v3 ad=26p pd=100.52u as=26p ps=100.52u w=100u l=700n
X5 a_11208_0# a_11068_n44# a_10964_0# w_n176_n86# pfet_03v3 ad=26p pd=100.52u as=26p ps=100.52u w=100u l=700n
X6 a_10232_0# a_10092_n44# a_9988_0# w_n176_n86# pfet_03v3 ad=26p pd=100.52u as=26p ps=100.52u w=100u l=700n
X7 a_5596_0# a_5456_n44# a_5352_0# w_n176_n86# pfet_03v3 ad=26p pd=100.52u as=26p ps=100.52u w=100u l=700n
X8 a_4620_0# a_4480_n44# a_4376_0# w_n176_n86# pfet_03v3 ad=26p pd=100.52u as=26p ps=100.52u w=100u l=700n
X9 a_20724_0# a_20584_n44# a_20480_0# w_n176_n86# pfet_03v3 ad=26p pd=100.52u as=26p ps=100.52u w=100u l=700n
X10 a_5352_0# a_5212_n44# a_5108_0# w_n176_n86# pfet_03v3 ad=26p pd=100.52u as=26p ps=100.52u w=100u l=700n
X11 a_21456_0# a_21316_n44# a_21212_0# w_n176_n86# pfet_03v3 ad=26p pd=100.52u as=26p ps=100.52u w=100u l=700n
X12 a_20480_0# a_20340_n44# a_20236_0# w_n176_n86# pfet_03v3 ad=26p pd=100.52u as=26p ps=100.52u w=100u l=700n
X13 a_12428_0# a_12288_n44# a_12184_0# w_n176_n86# pfet_03v3 ad=26p pd=100.52u as=26p ps=100.52u w=100u l=700n
X14 a_6816_0# a_6676_n44# a_6572_0# w_n176_n86# pfet_03v3 ad=26p pd=100.52u as=26p ps=100.52u w=100u l=700n
X15 a_12184_0# a_12044_n44# a_11940_0# w_n176_n86# pfet_03v3 ad=26p pd=100.52u as=26p ps=100.52u w=100u l=700n
X16 a_7548_0# a_7408_n44# a_7304_0# w_n176_n86# pfet_03v3 ad=26p pd=100.52u as=26p ps=100.52u w=100u l=700n
X17 a_6572_0# a_6432_n44# a_6328_0# w_n176_n86# pfet_03v3 ad=26p pd=100.52u as=26p ps=100.52u w=100u l=700n
X18 a_22676_0# a_22536_n44# a_22432_0# w_n176_n86# pfet_03v3 ad=26p pd=100.52u as=26p ps=100.52u w=100u l=700n
X19 a_21700_0# a_21560_n44# a_21456_0# w_n176_n86# pfet_03v3 ad=26p pd=100.52u as=26p ps=100.52u w=100u l=700n
X20 a_10964_0# a_10824_n44# a_10720_0# w_n176_n86# pfet_03v3 ad=26p pd=100.52u as=26p ps=100.52u w=100u l=700n
X21 a_8036_0# a_7896_n44# a_7792_0# w_n176_n86# pfet_03v3 ad=26p pd=100.52u as=26p ps=100.52u w=100u l=700n
X22 a_13404_0# a_13264_n44# a_13160_0# w_n176_n86# pfet_03v3 ad=26p pd=100.52u as=26p ps=100.52u w=100u l=700n
X23 a_8768_0# a_8628_n44# a_8524_0# w_n176_n86# pfet_03v3 ad=26p pd=100.52u as=26p ps=100.52u w=100u l=700n
X24 a_7792_0# a_7652_n44# a_7548_0# w_n176_n86# pfet_03v3 ad=26p pd=100.52u as=26p ps=100.52u w=100u l=700n
X25 a_23896_0# a_23756_n44# a_23652_0# w_n176_n86# pfet_03v3 ad=26p pd=100.52u as=26p ps=100.52u w=100u l=700n
X26 a_22920_0# a_22780_n44# a_22676_0# w_n176_n86# pfet_03v3 ad=26p pd=100.52u as=26p ps=100.52u w=100u l=700n
X27 a_13160_0# a_13020_n44# a_12916_0# w_n176_n86# pfet_03v3 ad=26p pd=100.52u as=26p ps=100.52u w=100u l=700n
X28 a_23652_0# a_23512_n44# a_23408_0# w_n176_n86# pfet_03v3 ad=26p pd=100.52u as=26p ps=100.52u w=100u l=700n
X29 a_14624_0# a_14484_n44# a_14380_0# w_n176_n86# pfet_03v3 ad=26p pd=100.52u as=26p ps=100.52u w=100u l=700n
X30 a_11940_0# a_11800_n44# a_11696_0# w_n176_n86# pfet_03v3 ad=26p pd=100.52u as=26p ps=100.52u w=100u l=700n
X31 a_9988_0# a_9848_n44# a_9744_0# w_n176_n86# pfet_03v3 ad=26p pd=100.52u as=26p ps=100.52u w=100u l=700n
X32 a_9012_0# a_8872_n44# a_8768_0# w_n176_n86# pfet_03v3 ad=26p pd=100.52u as=26p ps=100.52u w=100u l=700n
X33 a_15356_0# a_15216_n44# a_15112_0# w_n176_n86# pfet_03v3 ad=26p pd=100.52u as=26p ps=100.52u w=100u l=700n
X34 a_14380_0# a_14240_n44# a_14136_0# w_n176_n86# pfet_03v3 ad=26p pd=100.52u as=26p ps=100.52u w=100u l=700n
X35 a_9744_0# a_9604_n44# a_9500_0# w_n176_n86# pfet_03v3 ad=26p pd=100.52u as=26p ps=100.52u w=100u l=700n
X36 a_16576_0# a_16436_n44# a_16332_0# w_n176_n86# pfet_03v3 ad=26p pd=100.52u as=26p ps=100.52u w=100u l=700n
X37 a_15600_0# a_15460_n44# a_15356_0# w_n176_n86# pfet_03v3 ad=26p pd=100.52u as=26p ps=100.52u w=100u l=700n
X38 a_17796_0# a_17656_n44# a_17552_0# w_n176_n86# pfet_03v3 ad=26p pd=100.52u as=26p ps=100.52u w=100u l=700n
X39 a_16820_0# a_16680_n44# a_16576_0# w_n176_n86# pfet_03v3 ad=26p pd=100.52u as=26p ps=100.52u w=100u l=700n
X40 a_17552_0# a_17412_n44# a_17308_0# w_n176_n86# pfet_03v3 ad=26p pd=100.52u as=26p ps=100.52u w=100u l=700n
X41 a_19016_0# a_18876_n44# a_18772_0# w_n176_n86# pfet_03v3 ad=26p pd=100.52u as=26p ps=100.52u w=100u l=700n
X42 a_960_0# a_820_n44# a_716_0# w_n176_n86# pfet_03v3 ad=26p pd=100.52u as=26p ps=100.52u w=100u l=700n
X43 a_19748_0# a_19608_n44# a_19504_0# w_n176_n86# pfet_03v3 ad=26p pd=100.52u as=26p ps=100.52u w=100u l=700n
X44 a_18772_0# a_18632_n44# a_18528_0# w_n176_n86# pfet_03v3 ad=26p pd=100.52u as=26p ps=100.52u w=100u l=700n
X45 a_19992_0# a_19852_n44# a_19748_0# w_n176_n86# pfet_03v3 ad=26p pd=100.52u as=26p ps=100.52u w=100u l=700n
X46 a_1448_0# a_1308_n44# a_1204_0# w_n176_n86# pfet_03v3 ad=26p pd=100.52u as=26p ps=100.52u w=100u l=700n
X47 a_1936_0# a_1796_n44# a_1692_0# w_n176_n86# pfet_03v3 ad=26p pd=100.52u as=26p ps=100.52u w=100u l=700n
X48 a_2668_0# a_2528_n44# a_2424_0# w_n176_n86# pfet_03v3 ad=26p pd=100.52u as=26p ps=100.52u w=100u l=700n
X49 a_1692_0# a_1552_n44# a_1448_0# w_n176_n86# pfet_03v3 ad=26p pd=100.52u as=26p ps=100.52u w=100u l=700n
X50 a_20236_0# a_20096_n44# a_19992_0# w_n176_n86# pfet_03v3 ad=26p pd=100.52u as=26p ps=100.52u w=100u l=700n
X51 a_3888_0# a_3748_n44# a_3644_0# w_n176_n86# pfet_03v3 ad=26p pd=100.52u as=26p ps=100.52u w=100u l=700n
X52 a_2912_0# a_2772_n44# a_2668_0# w_n176_n86# pfet_03v3 ad=26p pd=100.52u as=26p ps=100.52u w=100u l=700n
X53 a_6328_0# a_6188_n44# a_6084_0# w_n176_n86# pfet_03v3 ad=26p pd=100.52u as=26p ps=100.52u w=100u l=700n
X54 a_3644_0# a_3504_n44# a_3400_0# w_n176_n86# pfet_03v3 ad=26p pd=100.52u as=26p ps=100.52u w=100u l=700n
X55 a_5108_0# a_4968_n44# a_4864_0# w_n176_n86# pfet_03v3 ad=26p pd=100.52u as=26p ps=100.52u w=100u l=700n
X56 a_4132_0# a_3992_n44# a_3888_0# w_n176_n86# pfet_03v3 ad=26p pd=100.52u as=26p ps=100.52u w=100u l=700n
X57 a_22188_0# a_22048_n44# a_21944_0# w_n176_n86# pfet_03v3 ad=26p pd=100.52u as=26p ps=100.52u w=100u l=700n
X58 a_21212_0# a_21072_n44# a_20968_0# w_n176_n86# pfet_03v3 ad=26p pd=100.52u as=26p ps=100.52u w=100u l=700n
X59 a_10476_0# a_10336_n44# a_10232_0# w_n176_n86# pfet_03v3 ad=26p pd=100.52u as=26p ps=100.52u w=100u l=700n
X60 a_4864_0# a_4724_n44# a_4620_0# w_n176_n86# pfet_03v3 ad=26p pd=100.52u as=26p ps=100.52u w=100u l=700n
X61 a_20968_0# a_20828_n44# a_20724_0# w_n176_n86# pfet_03v3 ad=26p pd=100.52u as=26p ps=100.52u w=100u l=700n
X62 a_7304_0# a_7164_n44# a_7060_0# w_n176_n86# pfet_03v3 ad=26p pd=100.52u as=26p ps=100.52u w=100u l=700n
X63 a_23408_0# a_23268_n44# a_23164_0# w_n176_n86# pfet_03v3 ad=26p pd=100.52u as=26p ps=100.52u w=100u l=700n
X64 a_22432_0# a_22292_n44# a_22188_0# w_n176_n86# pfet_03v3 ad=26p pd=100.52u as=26p ps=100.52u w=100u l=700n
X65 a_11696_0# a_11556_n44# a_11452_0# w_n176_n86# pfet_03v3 ad=26p pd=100.52u as=26p ps=100.52u w=100u l=700n
X66 a_10720_0# a_10580_n44# a_10476_0# w_n176_n86# pfet_03v3 ad=26p pd=100.52u as=26p ps=100.52u w=100u l=700n
X67 a_6084_0# a_5944_n44# a_5840_0# w_n176_n86# pfet_03v3 ad=26p pd=100.52u as=26p ps=100.52u w=100u l=700n
X68 a_228_0# a_88_n44# a_0_0# w_n176_n86# pfet_03v3 ad=26p pd=100.52u as=44p ps=200.88u w=100u l=700n
X69 a_23164_0# a_23024_n44# a_22920_0# w_n176_n86# pfet_03v3 ad=26p pd=100.52u as=26p ps=100.52u w=100u l=700n