*SPEF "ieee 1481-1999"
*DESIGN "top"
*DATE "11:11:11 Fri 11 11, 1111"
*VENDOR "OpenRCX"
*PROGRAM "Parallel Extraction"
*VERSION "1.0"
*DESIGN_FLOW "NAME_SCOPE LOCAL" "PIN_CAP NONE"
*DIVIDER /
*DELIMITER :
*BUS_DELIMITER []
*T_UNIT 1 NS
*C_UNIT 1 PF
*R_UNIT 1 OHM
*L_UNIT 1 HENRY

*NAME_MAP
*3 osc_en
*4 osc_out
*5 net1
*6 osc_sig
*7 ANTENNA__0__A1
*8 ANTENNA__0__A2
*9 ANTENNA_input1_I
*10 FILLER_0_104
*11 FILLER_0_107
*12 FILLER_0_139
*13 FILLER_0_142
*14 FILLER_0_174
*15 FILLER_0_177
*16 FILLER_0_2
*17 FILLER_0_209
*18 FILLER_0_212
*19 FILLER_0_244
*20 FILLER_0_247
*21 FILLER_0_279
*22 FILLER_0_282
*23 FILLER_0_314
*24 FILLER_0_317
*25 FILLER_0_325
*26 FILLER_0_329
*27 FILLER_0_34
*28 FILLER_0_37
*29 FILLER_0_69
*30 FILLER_0_72
*31 FILLER_10_2
*32 FILLER_10_236
*33 FILLER_10_268
*34 FILLER_10_271
*35 FILLER_10_303
*36 FILLER_10_319
*37 FILLER_10_327
*38 FILLER_10_34
*39 FILLER_10_37
*40 FILLER_10_53
*41 FILLER_11_2
*42 FILLER_11_236
*43 FILLER_11_300
*44 FILLER_11_304
*45 FILLER_11_307
*46 FILLER_11_323
*47 FILLER_11_34
*48 FILLER_11_50
*49 FILLER_11_54
*50 FILLER_11_56
*51 FILLER_12_2
*52 FILLER_12_236
*53 FILLER_12_268
*54 FILLER_12_271
*55 FILLER_12_303
*56 FILLER_12_319
*57 FILLER_12_327
*58 FILLER_12_34
*59 FILLER_12_37
*60 FILLER_12_53
*61 FILLER_13_2
*62 FILLER_13_236
*63 FILLER_13_300
*64 FILLER_13_304
*65 FILLER_13_307
*66 FILLER_13_323
*67 FILLER_13_34
*68 FILLER_13_50
*69 FILLER_13_54
*70 FILLER_13_56
*71 FILLER_14_2
*72 FILLER_14_236
*73 FILLER_14_268
*74 FILLER_14_271
*75 FILLER_14_303
*76 FILLER_14_319
*77 FILLER_14_327
*78 FILLER_14_34
*79 FILLER_14_37
*80 FILLER_14_53
*81 FILLER_15_2
*82 FILLER_15_236
*83 FILLER_15_300
*84 FILLER_15_304
*85 FILLER_15_307
*86 FILLER_15_323
*87 FILLER_15_34
*88 FILLER_15_50
*89 FILLER_15_54
*90 FILLER_15_56
*91 FILLER_16_2
*92 FILLER_16_236
*93 FILLER_16_268
*94 FILLER_16_271
*95 FILLER_16_303
*96 FILLER_16_319
*97 FILLER_16_327
*98 FILLER_16_34
*99 FILLER_16_37
*100 FILLER_16_53
*101 FILLER_17_2
*102 FILLER_17_236
*103 FILLER_17_300
*104 FILLER_17_304
*105 FILLER_17_307
*106 FILLER_17_323
*107 FILLER_17_34
*108 FILLER_17_50
*109 FILLER_17_54
*110 FILLER_17_56
*111 FILLER_18_2
*112 FILLER_18_236
*113 FILLER_18_268
*114 FILLER_18_271
*115 FILLER_18_303
*116 FILLER_18_319
*117 FILLER_18_327
*118 FILLER_18_34
*119 FILLER_18_37
*120 FILLER_18_53
*121 FILLER_19_104
*122 FILLER_19_107
*123 FILLER_19_139
*124 FILLER_19_142
*125 FILLER_19_174
*126 FILLER_19_177
*127 FILLER_19_2
*128 FILLER_19_209
*129 FILLER_19_212
*130 FILLER_19_244
*131 FILLER_19_247
*132 FILLER_19_279
*133 FILLER_19_282
*134 FILLER_19_314
*135 FILLER_19_317
*136 FILLER_19_325
*137 FILLER_19_329
*138 FILLER_19_34
*139 FILLER_19_37
*140 FILLER_19_69
*141 FILLER_19_72
*142 FILLER_1_137
*143 FILLER_1_141
*144 FILLER_1_144
*145 FILLER_1_2
*146 FILLER_1_208
*147 FILLER_1_212
*148 FILLER_1_215
*149 FILLER_1_279
*150 FILLER_1_283
*151 FILLER_1_286
*152 FILLER_1_318
*153 FILLER_1_326
*154 FILLER_1_330
*155 FILLER_1_66
*156 FILLER_1_70
*157 FILLER_1_73
*158 FILLER_20_101
*159 FILLER_20_105
*160 FILLER_20_108
*161 FILLER_20_140
*162 FILLER_20_148
*163 FILLER_20_152
*164 FILLER_20_162
*165 FILLER_20_166
*166 FILLER_20_170
*167 FILLER_20_174
*168 FILLER_20_176
*169 FILLER_20_179
*170 FILLER_20_2
*171 FILLER_20_243
*172 FILLER_20_247
*173 FILLER_20_250
*174 FILLER_20_314
*175 FILLER_20_318
*176 FILLER_20_321
*177 FILLER_20_329
*178 FILLER_20_34
*179 FILLER_20_37
*180 FILLER_21_137
*181 FILLER_21_141
*182 FILLER_21_144
*183 FILLER_21_2
*184 FILLER_21_208
*185 FILLER_21_212
*186 FILLER_21_215
*187 FILLER_21_279
*188 FILLER_21_283
*189 FILLER_21_286
*190 FILLER_21_318
*191 FILLER_21_326
*192 FILLER_21_330
*193 FILLER_21_66
*194 FILLER_21_70
*195 FILLER_21_73
*196 FILLER_22_101
*197 FILLER_22_105
*198 FILLER_22_108
*199 FILLER_22_172
*200 FILLER_22_176
*201 FILLER_22_179
*202 FILLER_22_2
*203 FILLER_22_243
*204 FILLER_22_247
*205 FILLER_22_250
*206 FILLER_22_314
*207 FILLER_22_318
*208 FILLER_22_321
*209 FILLER_22_329
*210 FILLER_22_34
*211 FILLER_22_37
*212 FILLER_23_137
*213 FILLER_23_141
*214 FILLER_23_144
*215 FILLER_23_2
*216 FILLER_23_208
*217 FILLER_23_212
*218 FILLER_23_215
*219 FILLER_23_279
*220 FILLER_23_283
*221 FILLER_23_286
*222 FILLER_23_318
*223 FILLER_23_326
*224 FILLER_23_330
*225 FILLER_23_66
*226 FILLER_23_70
*227 FILLER_23_73
*228 FILLER_24_101
*229 FILLER_24_105
*230 FILLER_24_108
*231 FILLER_24_172
*232 FILLER_24_176
*233 FILLER_24_179
*234 FILLER_24_2
*235 FILLER_24_243
*236 FILLER_24_247
*237 FILLER_24_250
*238 FILLER_24_314
*239 FILLER_24_318
*240 FILLER_24_321
*241 FILLER_24_329
*242 FILLER_24_34
*243 FILLER_24_37
*244 FILLER_25_137
*245 FILLER_25_141
*246 FILLER_25_144
*247 FILLER_25_2
*248 FILLER_25_208
*249 FILLER_25_212
*250 FILLER_25_215
*251 FILLER_25_279
*252 FILLER_25_283
*253 FILLER_25_286
*254 FILLER_25_318
*255 FILLER_25_326
*256 FILLER_25_330
*257 FILLER_25_66
*258 FILLER_25_70
*259 FILLER_25_73
*260 FILLER_26_101
*261 FILLER_26_105
*262 FILLER_26_108
*263 FILLER_26_172
*264 FILLER_26_176
*265 FILLER_26_179
*266 FILLER_26_2
*267 FILLER_26_243
*268 FILLER_26_247
*269 FILLER_26_250
*270 FILLER_26_314
*271 FILLER_26_318
*272 FILLER_26_321
*273 FILLER_26_329
*274 FILLER_26_34
*275 FILLER_26_37
*276 FILLER_27_137
*277 FILLER_27_141
*278 FILLER_27_144
*279 FILLER_27_2
*280 FILLER_27_208
*281 FILLER_27_212
*282 FILLER_27_215
*283 FILLER_27_279
*284 FILLER_27_283
*285 FILLER_27_286
*286 FILLER_27_318
*287 FILLER_27_326
*288 FILLER_27_330
*289 FILLER_27_66
*290 FILLER_27_70
*291 FILLER_27_73
*292 FILLER_28_101
*293 FILLER_28_105
*294 FILLER_28_108
*295 FILLER_28_172
*296 FILLER_28_176
*297 FILLER_28_179
*298 FILLER_28_2
*299 FILLER_28_243
*300 FILLER_28_247
*301 FILLER_28_250
*302 FILLER_28_314
*303 FILLER_28_318
*304 FILLER_28_321
*305 FILLER_28_329
*306 FILLER_28_34
*307 FILLER_28_37
*308 FILLER_29_137
*309 FILLER_29_141
*310 FILLER_29_144
*311 FILLER_29_2
*312 FILLER_29_208
*313 FILLER_29_212
*314 FILLER_29_215
*315 FILLER_29_279
*316 FILLER_29_283
*317 FILLER_29_286
*318 FILLER_29_318
*319 FILLER_29_326
*320 FILLER_29_330
*321 FILLER_29_66
*322 FILLER_29_70
*323 FILLER_29_73
*324 FILLER_2_101
*325 FILLER_2_105
*326 FILLER_2_108
*327 FILLER_2_172
*328 FILLER_2_176
*329 FILLER_2_179
*330 FILLER_2_2
*331 FILLER_2_243
*332 FILLER_2_247
*333 FILLER_2_250
*334 FILLER_2_314
*335 FILLER_2_318
*336 FILLER_2_321
*337 FILLER_2_329
*338 FILLER_2_34
*339 FILLER_2_37
*340 FILLER_30_101
*341 FILLER_30_105
*342 FILLER_30_108
*343 FILLER_30_172
*344 FILLER_30_176
*345 FILLER_30_179
*346 FILLER_30_2
*347 FILLER_30_243
*348 FILLER_30_247
*349 FILLER_30_250
*350 FILLER_30_314
*351 FILLER_30_318
*352 FILLER_30_321
*353 FILLER_30_329
*354 FILLER_30_34
*355 FILLER_30_37
*356 FILLER_31_137
*357 FILLER_31_141
*358 FILLER_31_144
*359 FILLER_31_2
*360 FILLER_31_208
*361 FILLER_31_212
*362 FILLER_31_215
*363 FILLER_31_279
*364 FILLER_31_283
*365 FILLER_31_286
*366 FILLER_31_318
*367 FILLER_31_326
*368 FILLER_31_330
*369 FILLER_31_66
*370 FILLER_31_70
*371 FILLER_31_73
*372 FILLER_32_101
*373 FILLER_32_105
*374 FILLER_32_108
*375 FILLER_32_172
*376 FILLER_32_176
*377 FILLER_32_179
*378 FILLER_32_2
*379 FILLER_32_243
*380 FILLER_32_247
*381 FILLER_32_250
*382 FILLER_32_314
*383 FILLER_32_318
*384 FILLER_32_321
*385 FILLER_32_329
*386 FILLER_32_34
*387 FILLER_32_37
*388 FILLER_33_137
*389 FILLER_33_141
*390 FILLER_33_144
*391 FILLER_33_2
*392 FILLER_33_208
*393 FILLER_33_212
*394 FILLER_33_215
*395 FILLER_33_279
*396 FILLER_33_283
*397 FILLER_33_286
*398 FILLER_33_318
*399 FILLER_33_326
*400 FILLER_33_330
*401 FILLER_33_66
*402 FILLER_33_70
*403 FILLER_33_73
*404 FILLER_34_101
*405 FILLER_34_105
*406 FILLER_34_108
*407 FILLER_34_172
*408 FILLER_34_176
*409 FILLER_34_179
*410 FILLER_34_2
*411 FILLER_34_243
*412 FILLER_34_247
*413 FILLER_34_250
*414 FILLER_34_314
*415 FILLER_34_318
*416 FILLER_34_321
*417 FILLER_34_329
*418 FILLER_34_34
*419 FILLER_34_37
*420 FILLER_35_137
*421 FILLER_35_141
*422 FILLER_35_144
*423 FILLER_35_2
*424 FILLER_35_208
*425 FILLER_35_212
*426 FILLER_35_215
*427 FILLER_35_279
*428 FILLER_35_283
*429 FILLER_35_286
*430 FILLER_35_318
*431 FILLER_35_326
*432 FILLER_35_330
*433 FILLER_35_66
*434 FILLER_35_70
*435 FILLER_35_73
*436 FILLER_36_101
*437 FILLER_36_105
*438 FILLER_36_108
*439 FILLER_36_172
*440 FILLER_36_176
*441 FILLER_36_179
*442 FILLER_36_2
*443 FILLER_36_243
*444 FILLER_36_247
*445 FILLER_36_250
*446 FILLER_36_314
*447 FILLER_36_318
*448 FILLER_36_321
*449 FILLER_36_329
*450 FILLER_36_34
*451 FILLER_36_37
*452 FILLER_37_137
*453 FILLER_37_141
*454 FILLER_37_144
*455 FILLER_37_2
*456 FILLER_37_208
*457 FILLER_37_212
*458 FILLER_37_215
*459 FILLER_37_279
*460 FILLER_37_283
*461 FILLER_37_286
*462 FILLER_37_318
*463 FILLER_37_326
*464 FILLER_37_330
*465 FILLER_37_66
*466 FILLER_37_70
*467 FILLER_37_73
*468 FILLER_38_101
*469 FILLER_38_105
*470 FILLER_38_108
*471 FILLER_38_172
*472 FILLER_38_176
*473 FILLER_38_179
*474 FILLER_38_2
*475 FILLER_38_243
*476 FILLER_38_247
*477 FILLER_38_250
*478 FILLER_38_314
*479 FILLER_38_318
*480 FILLER_38_321
*481 FILLER_38_329
*482 FILLER_38_34
*483 FILLER_38_37
*484 FILLER_39_137
*485 FILLER_39_141
*486 FILLER_39_144
*487 FILLER_39_2
*488 FILLER_39_208
*489 FILLER_39_212
*490 FILLER_39_215
*491 FILLER_39_279
*492 FILLER_39_283
*493 FILLER_39_286
*494 FILLER_39_318
*495 FILLER_39_326
*496 FILLER_39_330
*497 FILLER_39_66
*498 FILLER_39_70
*499 FILLER_39_73
*500 FILLER_3_137
*501 FILLER_3_141
*502 FILLER_3_144
*503 FILLER_3_2
*504 FILLER_3_208
*505 FILLER_3_212
*506 FILLER_3_215
*507 FILLER_3_279
*508 FILLER_3_283
*509 FILLER_3_286
*510 FILLER_3_318
*511 FILLER_3_326
*512 FILLER_3_330
*513 FILLER_3_66
*514 FILLER_3_70
*515 FILLER_3_73
*516 FILLER_40_101
*517 FILLER_40_105
*518 FILLER_40_108
*519 FILLER_40_172
*520 FILLER_40_176
*521 FILLER_40_179
*522 FILLER_40_2
*523 FILLER_40_243
*524 FILLER_40_247
*525 FILLER_40_250
*526 FILLER_40_314
*527 FILLER_40_318
*528 FILLER_40_321
*529 FILLER_40_329
*530 FILLER_40_34
*531 FILLER_40_37
*532 FILLER_41_137
*533 FILLER_41_141
*534 FILLER_41_144
*535 FILLER_41_2
*536 FILLER_41_208
*537 FILLER_41_212
*538 FILLER_41_215
*539 FILLER_41_279
*540 FILLER_41_283
*541 FILLER_41_286
*542 FILLER_41_318
*543 FILLER_41_326
*544 FILLER_41_330
*545 FILLER_41_66
*546 FILLER_41_70
*547 FILLER_41_73
*548 FILLER_42_104
*549 FILLER_42_107
*550 FILLER_42_139
*551 FILLER_42_142
*552 FILLER_42_174
*553 FILLER_42_177
*554 FILLER_42_2
*555 FILLER_42_209
*556 FILLER_42_212
*557 FILLER_42_244
*558 FILLER_42_247
*559 FILLER_42_279
*560 FILLER_42_282
*561 FILLER_42_298
*562 FILLER_42_305
*563 FILLER_42_309
*564 FILLER_42_313
*565 FILLER_42_317
*566 FILLER_42_325
*567 FILLER_42_329
*568 FILLER_42_34
*569 FILLER_42_37
*570 FILLER_42_69
*571 FILLER_42_72
*572 FILLER_4_101
*573 FILLER_4_105
*574 FILLER_4_108
*575 FILLER_4_172
*576 FILLER_4_176
*577 FILLER_4_179
*578 FILLER_4_2
*579 FILLER_4_243
*580 FILLER_4_247
*581 FILLER_4_250
*582 FILLER_4_314
*583 FILLER_4_318
*584 FILLER_4_321
*585 FILLER_4_329
*586 FILLER_4_34
*587 FILLER_4_37
*588 FILLER_5_104
*589 FILLER_5_107
*590 FILLER_5_139
*591 FILLER_5_142
*592 FILLER_5_174
*593 FILLER_5_177
*594 FILLER_5_2
*595 FILLER_5_209
*596 FILLER_5_212
*597 FILLER_5_244
*598 FILLER_5_247
*599 FILLER_5_279
*600 FILLER_5_282
*601 FILLER_5_314
*602 FILLER_5_317
*603 FILLER_5_325
*604 FILLER_5_329
*605 FILLER_5_34
*606 FILLER_5_37
*607 FILLER_5_69
*608 FILLER_5_72
*609 FILLER_6_2
*610 FILLER_6_236
*611 FILLER_6_268
*612 FILLER_6_271
*613 FILLER_6_303
*614 FILLER_6_319
*615 FILLER_6_327
*616 FILLER_6_34
*617 FILLER_6_37
*618 FILLER_6_53
*619 FILLER_7_2
*620 FILLER_7_236
*621 FILLER_7_300
*622 FILLER_7_304
*623 FILLER_7_307
*624 FILLER_7_323
*625 FILLER_7_34
*626 FILLER_7_50
*627 FILLER_7_54
*628 FILLER_7_56
*629 FILLER_8_2
*630 FILLER_8_236
*631 FILLER_8_268
*632 FILLER_8_271
*633 FILLER_8_303
*634 FILLER_8_319
*635 FILLER_8_327
*636 FILLER_8_34
*637 FILLER_8_37
*638 FILLER_8_53
*639 FILLER_9_2
*640 FILLER_9_236
*641 FILLER_9_300
*642 FILLER_9_304
*643 FILLER_9_307
*644 FILLER_9_323
*645 FILLER_9_34
*646 FILLER_9_50
*647 FILLER_9_54
*648 FILLER_9_56
*649 PHY_0
*650 PHY_1
*651 PHY_10
*652 PHY_100
*653 PHY_101
*654 PHY_102
*655 PHY_103
*656 PHY_104
*657 PHY_105
*658 PHY_106
*659 PHY_107
*660 PHY_108
*661 PHY_109
*662 PHY_11
*663 PHY_110
*664 PHY_111
*665 PHY_12
*666 PHY_13
*667 PHY_14
*668 PHY_15
*669 PHY_16
*670 PHY_17
*671 PHY_18
*672 PHY_19
*673 PHY_2
*674 PHY_20
*675 PHY_21
*676 PHY_22
*677 PHY_23
*678 PHY_24
*679 PHY_25
*680 PHY_26
*681 PHY_27
*682 PHY_28
*683 PHY_29
*684 PHY_3
*685 PHY_30
*686 PHY_31
*687 PHY_32
*688 PHY_33
*689 PHY_34
*690 PHY_35
*691 PHY_36
*692 PHY_37
*693 PHY_38
*694 PHY_39
*695 PHY_4
*696 PHY_40
*697 PHY_41
*698 PHY_42
*699 PHY_43
*700 PHY_44
*701 PHY_45
*702 PHY_46
*703 PHY_47
*704 PHY_48
*705 PHY_49
*706 PHY_5
*707 PHY_50
*708 PHY_51
*709 PHY_52
*710 PHY_53
*711 PHY_54
*712 PHY_55
*713 PHY_56
*714 PHY_57
*715 PHY_58
*716 PHY_59
*717 PHY_6
*718 PHY_60
*719 PHY_61
*720 PHY_62
*721 PHY_63
*722 PHY_64
*723 PHY_65
*724 PHY_66
*725 PHY_67
*726 PHY_68
*727 PHY_69
*728 PHY_7
*729 PHY_70
*730 PHY_71
*731 PHY_72
*732 PHY_73
*733 PHY_74
*734 PHY_75
*735 PHY_76
*736 PHY_77
*737 PHY_78
*738 PHY_79
*739 PHY_8
*740 PHY_80
*741 PHY_81
*742 PHY_82
*743 PHY_83
*744 PHY_84
*745 PHY_85
*746 PHY_86
*747 PHY_87
*748 PHY_88
*749 PHY_89
*750 PHY_9
*751 PHY_90
*752 PHY_91
*753 PHY_92
*754 PHY_93
*755 PHY_94
*756 PHY_95
*757 PHY_96
*758 PHY_97
*759 PHY_98
*760 PHY_99
*761 TAP_112
*762 TAP_113
*763 TAP_114
*764 TAP_115
*765 TAP_116
*766 TAP_117
*767 TAP_118
*768 TAP_119
*769 TAP_120
*770 TAP_121
*771 TAP_122
*772 TAP_123
*773 TAP_124
*774 TAP_125
*775 TAP_126
*776 TAP_127
*777 TAP_128
*778 TAP_129
*779 TAP_130
*780 TAP_131
*781 TAP_132
*782 TAP_133
*783 TAP_134
*784 TAP_135
*785 TAP_136
*786 TAP_137
*787 TAP_138
*788 TAP_139
*789 TAP_140
*790 TAP_141
*791 TAP_142
*792 TAP_143
*793 TAP_144
*794 TAP_145
*795 TAP_146
*796 TAP_147
*797 TAP_148
*798 TAP_149
*799 TAP_150
*800 TAP_151
*801 TAP_152
*802 TAP_153
*803 TAP_154
*804 TAP_155
*805 TAP_156
*806 TAP_157
*807 TAP_158
*808 TAP_159
*809 TAP_160
*810 TAP_161
*811 TAP_162
*812 TAP_163
*813 TAP_164
*814 TAP_165
*815 TAP_166
*816 TAP_167
*817 TAP_168
*818 TAP_169
*819 TAP_170
*820 TAP_171
*821 TAP_172
*822 TAP_173
*823 TAP_174
*824 TAP_175
*825 TAP_176
*826 TAP_177
*827 TAP_178
*828 TAP_179
*829 TAP_180
*830 TAP_181
*831 TAP_182
*832 TAP_183
*833 TAP_184
*834 TAP_185
*835 TAP_186
*836 TAP_187
*837 TAP_188
*838 TAP_189
*839 TAP_190
*840 TAP_191
*841 TAP_192
*842 TAP_193
*843 TAP_194
*844 TAP_195
*845 TAP_196
*846 TAP_197
*847 TAP_198
*848 TAP_199
*849 TAP_200
*850 TAP_201
*851 TAP_202
*852 TAP_203
*853 TAP_204
*854 TAP_205
*855 TAP_206
*856 TAP_207
*857 TAP_208
*858 TAP_209
*859 TAP_210
*860 TAP_211
*861 TAP_212
*862 TAP_213
*863 TAP_214
*864 TAP_215
*865 TAP_216
*866 TAP_217
*867 TAP_218
*868 TAP_219
*869 TAP_220
*870 TAP_221
*871 TAP_222
*872 TAP_223
*873 TAP_224
*874 TAP_225
*875 TAP_226
*876 TAP_227
*877 TAP_228
*878 TAP_229
*879 TAP_230
*880 TAP_231
*881 TAP_232
*882 TAP_233
*883 TAP_234
*884 TAP_235
*885 TAP_236
*886 TAP_237
*887 TAP_238
*888 TAP_239
*889 TAP_240
*890 TAP_241
*891 TAP_242
*892 TAP_243
*893 TAP_244
*894 TAP_245
*895 TAP_246
*896 TAP_247
*897 TAP_248
*898 TAP_249
*899 TAP_250
*900 TAP_251
*901 TAP_252
*902 TAP_253
*903 TAP_254
*904 TAP_255
*905 TAP_256
*906 TAP_257
*907 TAP_258
*908 TAP_259
*909 TAP_260
*910 TAP_261
*911 TAP_262
*912 TAP_263
*913 TAP_264
*914 TAP_265
*915 TAP_266
*916 TAP_267
*917 TAP_268
*918 TAP_269
*919 TAP_270
*920 TAP_271
*921 TAP_272
*922 TAP_273
*923 TAP_274
*924 TAP_275
*925 TAP_276
*926 TAP_277
*927 TAP_278
*928 TAP_279
*929 TAP_280
*930 TAP_281
*931 TAP_282
*932 TAP_283
*933 TAP_284
*934 _0_
*935 input1
*936 osc0

*PORTS
osc_en I
osc_out O

*D_NET *3 0.0031431
*CONN
*P osc_en I
*I *9:I I *D gf180mcu_fd_sc_mcu7t5v0__antenna
*I *935:I I *D gf180mcu_fd_sc_mcu7t5v0__clkbuf_1
*CAP
1 osc_en 0.00141522
2 *9:I 0
3 *935:I 0.000156328
4 *3:8 0.00157155
*RES
1 osc_en *3:8 15.255 
2 *3:8 *935:I 10.08 
3 *3:8 *9:I 9 
*END

*D_NET *4 0.0151816
*CONN
*P osc_out O
*I *934:Z O *D gf180mcu_fd_sc_mcu7t5v0__and2_1
*CAP
1 osc_out 0.00376371
2 *934:Z 0.00382711
3 *4:8 0.00759082
*RES
1 *934:Z *4:8 43.65 
2 *4:8 osc_out 29.385 
*END

*D_NET *5 0.0152356
*CONN
*I *7:I I *D gf180mcu_fd_sc_mcu7t5v0__antenna
*I *934:A1 I *D gf180mcu_fd_sc_mcu7t5v0__and2_1
*I *935:Z O *D gf180mcu_fd_sc_mcu7t5v0__clkbuf_1
*CAP
1 *7:I 0.000131085
2 *934:A1 0
3 *935:Z 0.00329588
4 *5:9 0.00432191
5 *5:8 0.0074867
*RES
1 *935:Z *5:8 38.79 
2 *5:8 *5:9 27.27 
3 *5:9 *934:A1 4.5 
4 *5:9 *7:I 5.49 
*END

*D_NET *6 0.00541813
*CONN
*I *8:I I *D gf180mcu_fd_sc_mcu7t5v0__antenna
*I *934:A2 I *D gf180mcu_fd_sc_mcu7t5v0__and2_1
*I *936:Y O *D TopLevel_oscillator
*CAP
1 *8:I 0
2 *934:A2 0.000399832
3 *936:Y 0.00230923
4 *6:12 0.00270907
*RES
1 *936:Y *6:12 26.82 
2 *6:12 *934:A2 11.34 
3 *6:12 *8:I 9 
*END
